19
Energy = -1483.191212034
C     0.1071867    2.8080974    1.0068412 
C    -0.0175635    2.9363154   -0.3715567 
C    -0.1275848    4.1816281   -0.9658264 
C    -0.1139779    5.3270505   -0.1780441 
C     0.0095241    5.2111416    1.1978849 
C     0.1191581    3.9541826    1.7855903 
S    -0.0346141    1.4712328   -1.4484633 
O    -1.1949280    0.6535224   -0.8633456 
U     0.0317400   -1.2555183    0.1522547 
O     0.2785469   -0.4049718    1.7390985 
O     1.2437504    0.7439654   -1.0507162 
O    -1.3752117   -2.6907114    1.0407484 
H    -1.6682999   -3.3534421    0.4135005 
O     0.0920454   -2.2305855   -1.3736532 
H    -0.2242277    4.2520770   -2.0448310 
H    -0.1999559    6.3054203   -0.6378201 
H     0.0199902    6.1012676    1.8173367 
H     0.2138144    3.8679039    2.8623734 
H     0.1912512    1.8188545    1.4496119 
