17
Energy = -1841.640285881
C    -0.0006449    3.7780205   -1.1844815 
S     0.0033641    3.0810977    0.4921877 
O     1.2319263    2.1655785    0.4424778 
O    -1.2279199    2.1692259    0.4500140 
Np   -0.0007312    0.0000112    0.0000330 
O    -0.0095815    0.4356040   -1.7256215 
O    -1.2321299   -2.1664347   -0.4427743 
S    -0.0029110   -3.0810685   -0.4921975 
C     0.0011786   -3.7780424    1.1844505 
O     0.0081095   -0.4355848    1.7256878 
O     1.2277210   -2.1683148   -0.4496739 
H     0.8975544   -4.3886463    1.2980451 
H     0.0052551   -2.9317633    1.8725300 
H    -0.8969158   -4.3849583    1.3040544 
H     0.8978447    4.3843007   -1.3043387 
H    -0.0054990    2.9317225   -1.8725326 
H    -0.8966206    4.3892519   -1.2978603 
