%mem=16000Mb
%NProc=8
%chk=PuO2_C6H5_SO2_OH-quartet.pbe0.optg-freq.chk
#p PBE1PBE/GEN/GEN GFInput GFOldPrint 5D 7F IOP(4/69=2, 6/7=3)
   Scf=(NoVarAcc,Conver=7,MaxCycle=200) Integral=(Grid=UltraFine)
   Pseudo=Read Guess=Harris
   Symm=Loose Opt Freq=NoRaman

PuIV-2OH-PuIV-richard.optg.chk

 -1 4
 C   -2.2756929    1.7091684    1.5313499
 C   -2.3072616    0.9577883    2.6997952
 C   -3.0720392    1.3584627    3.7815162
 C   -3.8228874    2.5261606    3.7043577
 C   -3.7986637    3.2818809    2.5424524
 C   -3.0257099    2.8718656    1.4598440
 S   -1.3463705   -0.5828405    2.8448944
 O    0.0572798   -0.1249544    2.4416608
Pu    0.3047891   -1.3422711    0.2815962
 O   -0.3262369    0.0409371   -0.6240184
 O   -1.8839140   -1.4187884    1.6896623
 O    2.2080026   -1.1966198   -0.8339256
 H    2.8355568   -1.8635803   -0.5523732
 O    0.8919841   -2.7885250    1.1101122
 H   -3.0775483    0.7547596    4.6837793
 H   -4.4233665    2.8444599    4.5493847
 H   -4.3813953    4.1940299    2.4772046
 H   -3.0081620    3.4664002    0.5531695
 H   -1.6665252    1.3738323    0.6977018

Pu 0
S 3 1.00
13367.5230000 0.000034
1955.3222000 0.000226
387.2387800 0.001091
S 1 1.00
115.7611200 1.0
S 3 1.00
67.5863080 0.055099
39.4881940 -0.268818
23.0278890 0.782460
S 1 1.00
11.2765540 1.0
S 1 1.00
3.1057620 1.0
S 1 1.00
1.6316460 1.0
S 1 1.00
0.6819060 1.0
S 1 1.00
0.3052620 1.0
S 1 1.00
0.0609050 1.0
S 1 1.00
0.0246800 1.0
P 5 1.00
2964.6281000 0.000129
704.3909300 0.001073
226.8424300 0.004934
81.9634700 0.014875
25.4817050 0.029639
P 1 1.00
14.9892380 1.0
P 1 1.00
8.7634560 1.0
P 1 1.00
3.6451710 1.0
P 1 1.00
1.8204090 1.0
P 1 1.00
0.6954460 1.0
P 1 1.00
0.2972810 1.0
P 1 1.00
0.1043570 1.0
P 1 1.00
0.0312250 1.0
D 6 1.00
475.6223800 0.000097
160.5201000 0.000403
60.9145150 0.003340
19.4372680 0.019265
10.0185970 -0.082576
4.0349700 0.435317
D 1 1.00
1.9648430 1.0
D 1 1.00
0.8647010 1.0
D 1 1.00
0.2755530 1.0
D 1 1.00
0.0833630 1.0
F 5 1.00
108.3220800 0.000384
36.6006770 0.003723
14.9386250 0.016442
5.3682640 0.140114
2.6257520 0.349263
F 1 1.00
1.1974600 1.0
F 1 1.00
0.4990010 1.0
F 1 1.00
0.1797190 1.0
G 4 1.00
108.3220800 0.000124
36.6006770 0.005173
14.9386250 0.034372
5.3682640 0.169138
G 1 1.00
2.6257520 1.0
G 1 1.00
1.1974600 1.0
****
S  0
aug-cc-pVTZ
****
O  0
aug-cc-pVTZ
****
C  0
aug-cc-pVTZ
****
H  0
aug-cc-pVTZ
****

Pu 0
MWB60

Pu
S  5  1.0
  9069.4526717      0.59770600000E-01
  5152.6607252     -0.15471350000
  2499.2296972      0.22521070000
  1235.3301712     -0.26143310000
  556.75942910      0.29834580000
S  1  1.0
  314.82015880     -0.26695160000
S  1  1.0
  130.63984800      0.42116100000E-01
S  1  1.0
  69.024541800      0.79003720000
S  1  1.0
  39.052886300      -2.7439276000
S  1  1.0
  17.511210700       10.896788700
S  1  1.0
  8.6496268000      -24.858077900
S  1  1.0
  4.2750790000       18.352038800
S  1  1.0
  2.1140526000       1.4992270000
S  1  1.0
  1.0458550000       2.6239889000
S  1  1.0
 0.51757150000       1.2007771000
S  1  1.0
 0.25619560000      0.33270000000E-02
S  1  1.0
 0.12681580000      0.13425620000
S  1  1.0
 0.63407800000E-01  0.24307500000E-01
P  1  1.0
  8.9142957000      0.17309000000E-01
P  1  1.0
  3.5436854000     -0.42878800000E-01
P  1  1.0
  1.4679749000      0.17933200000E-01
P  1  1.0
 0.62867920000     -0.74183000000E-02
P  1  1.0
 0.27590600000     -0.12040400000E-01
P  1  1.0
 0.12291170000      0.20195400000E-01
P  1  1.0
 0.55031800000E-01  0.49350000000E-03
D  1  1.0
  5.9790057000      0.51002000000E-02
D  1  1.0
  2.8179386000      0.69196000000E-02
D  1  1.0
  1.3483371000     -0.21043500000E-01
D  1  1.0
 0.65289080000      0.29598000000E-02
D  1  1.0
 0.31887270000     -0.23105000000E-02
D  1  1.0
 0.15654900000      0.12304100000E-01
D  1  1.0
 0.76990700000E-01  0.18698000000E-02
F  1  1.0
  6.1316519000      0.22945000000E-02
F  1  1.0
  2.4877588000      0.40632000000E-02
F  1  1.0
  1.0320778000     -0.54494000000E-02
F  1  1.0
 0.43517150000      0.20910000000E-03
F  1  1.0
 0.18530630000     -0.36480000000E-02
F  1  1.0
 0.79169300000E-01 -0.49420000000E-03
G  2  1.0
  7.3008941000      0.48089000000E-02
  3.0162331000      0.61529000000E-02
G  1  1.0
  1.2605479000      0.49150000000E-03
G  1  1.0
 0.53120830000      0.29708000000E-02
G  1  1.0
 0.22498390000     -0.32820000000E-03
G  1  1.0
 0.95448200000E-01 -0.15430000000E-03
H  2  1.0
  4.9360272000     -0.17866000000E-02
  1.8912408000      0.11158000000E-02
H  1  1.0
 0.72740030000      0.12702000000E-02
I  4  1.0
  9.6877730000      0.20734000000E-02
  4.3445867000      0.49713000000E-02
  1.8544876000      0.23215000000E-02
 0.79179630000      0.33360000000E-03
I  1  1.0
 0.33809680000      0.46300000000E-04
****
S  0
S  7  1.0
  7399.0303145      0.72279330000
  2710.1675859       1.3706745000
  1034.3279062       4.3217500000
  410.46454110       8.7624644000
  168.97625020       10.528990900
  71.968788900       3.0836598000
  31.617268300      -1.5821203000
S  1  1.0
  14.279683600       4.4920092000
S  1  1.0
  6.6060948000       5.6247567000
S  1  1.0
  3.1181477000      0.23311330000
S  1  1.0
  1.4954039000     -0.45274010000
S  1  1.0
 0.72547790000      0.67316170000
S  1  1.0
 0.35442160000      0.40156530000
S  1  1.0
 0.17355250000      0.61036900000E-01
P  2  1.0
  12.699879900      0.45797100000E-01
  4.4295784000     -0.39496800000E-01
P  1  1.0
  1.5232889000      0.35733800000E-01
P  1  1.0
 0.51946670000     -0.40859000000E-02
P  1  1.0
 0.17665470000     -0.36880000000E-02
D  3  1.0
  16.854646100      0.26323600000E-01
  5.0810461000     -0.19077300000E-01
  1.5102323000      0.21366800000E-01
D  1  1.0
 0.44513310000      0.21936900000E-01
D  1  1.0
 0.13083620000      0.16925000000E-02
F  2  1.0
  1.0809860000       1.0000000000
 0.41614740000       1.0000000000
G  1  1.0
 0.67071000000     -0.44361000000E-02
****
O  0
S  7  1.0
  2876.8216605      0.14435580000
  1004.7443032      0.29200410000
  369.75799540       1.0258517000
  142.94424040       2.2875516000
  57.836642500       3.6080237000
  24.386498300       2.3737865000
  10.662266200      0.48941400000E-01
S  1  1.0
  4.8070437000     -0.12951860000
S  1  1.0
  2.2210770000      0.77471580000
S  1  1.0
  1.0447795000      0.76478160000
S  1  1.0
 0.49684250000      0.23698030000
S  1  1.0
 0.23713840000      0.20809900000E-01
P  2  1.0
  64.261338200     -0.12665900000E-01
  16.300607600     -0.37874400000E-01
P  1  1.0
  4.3550542000      0.63807800000E-01
P  1  1.0
  1.2019554000      0.16951600000E-01
P  1  1.0
 0.33541960000      0.65743000000E-02
D  2  1.0
  9.2146611000     -0.59791400000E-01
  2.8435251000     -0.84672400000E-01
D  1  1.0
 0.99557590000     -0.46606600000E-01
D  1  1.0
 0.36494410000     -0.96978000000E-02
F  2  1.0
  2.6420115000       1.0000000000
 0.73456130000       1.0000000000
G  1  1.0
  1.3931000000     -0.16533000000E-02
****
C  0
S  7  1.0
  1861.0916331      0.74417100000E-01
  642.99397640      0.16539570000
  235.11057250      0.55764840000
  90.702889400       1.3108298000
  36.779455200       2.1694681000
  15.604627300       1.7668846000
  6.8907294000      0.29307690000
S  1  1.0
  3.1478850000     -0.17087020000
S  1  1.0
  1.4777287000      0.16415530000
S  1  1.0
 0.70764660000      0.41499410000
S  1  1.0
 0.34301220000      0.16243660000
S  1  1.0
 0.16694530000      0.20767500000E-01
P  2  1.0
  13.547289200     -0.20647700000E-01
  5.4669419000     -0.11528200000E-01
P  1  1.0
  2.1751721000      0.45591400000E-01
P  1  1.0
 0.85821940000      0.28360000000E-02
P  1  1.0
 0.33767200000      0.18187500000E-01
D  2  1.0
  5.9287253000     -0.22594800000E-01
  1.9809209000     -0.47682700000E-01
D  1  1.0
 0.80554170000     -0.36537200000E-01
D  1  1.0
 0.35312440000     -0.14541700000E-01
F  2  1.0
  1.6755626000      0.88798000000E-02
 0.59975360000      0.69903000000E-02
G  1  1.0
  1.0024600000     -0.22192000000E-02
****
H  0
S  3  1.0
  15.675292700      0.18688600000E-01
  3.6063578000      0.63167000000E-01
  1.2080016000      0.12046090000
S  1  1.0
 0.47267940000      0.59248500000E-01
S  1  1.0
 0.20181000000      0.51272000000E-02
P  2  1.0
  2.0281365000       1.0000000000
 0.53587300000       1.0000000000
D  1  1.0
  2.2165124000      0.33116000000E-02
****

