   19
scf done: -1560.111810
 C    -2.273431     1.709963     1.533454
 C    -2.307153     0.958563     2.701755
 C    -3.074850     1.358278     3.781764
 C    -3.826715     2.525216     3.702786
 C    -3.800399     3.281127     2.541019
 C    -3.024310     2.872024     1.460319
 S    -1.345550    -0.581498     2.848405
 O     0.058969    -0.123228     2.448936
Pu     0.308448    -1.337976     0.285232
 O    -0.321636     0.047953    -0.616852
 O    -1.880590    -1.417085     1.691541
 O     2.204735    -1.204316    -0.844529
 H     2.831677    -1.873573    -0.566889
 O     0.895400    -2.785333     1.111727
 H    -3.081793     0.754457     4.684003
 H    -4.429661     2.842852     4.546428
 H    -4.383995     4.192731     2.474434
 H    -3.005031     3.466717     0.553684
 H    -1.662274     1.375295     0.700948
