%mem=16000Mb
%NProc=8
%chk=NpO2_CH3SO2_SO2-m1-doublet.QTAIM.chk
#p PBE1PBE/GEN GFInput GFOldPrint 5D 7F IOP(4/69=2, 6/7=3)
   Scf=(VShift=500,NoVarAcc,MaxCycle=200,conver=7) Integral=(Grid=UltraFine)
   Pseudo=Read Guess=(Harris) 
   NoSymm 
   Output=WFX

NpO2_CH3SO2_SO2-m1-doublet.QTAIM.chk

 -1 2
C          1.51376        3.06967       -1.99256
S          1.36847        2.77682       -0.20718
O         -0.13429        2.50795       -0.06242
Np         0.00000        0.00000        0.00000
O          0.12521       -2.54487       -0.00528
S         -1.38124       -2.80501       -0.04281
O         -2.09340       -1.45219       -0.00773
O          2.07091        1.42151       -0.06114
O         -0.00000       -0.00000        1.77210
O         -0.00341       -0.00643       -1.77895
H          2.57073        3.18404       -2.23517
H          1.08384        2.19783       -2.48716
H          0.96145        3.97789       -2.23588

Np 0
S 3 1.00
12608.7120000 0.000283
1860.7357000 0.002197
362.9014700 0.007792
S 1 1.00
109.2067200 1.0
S 3 1.00
63.7434260 0.060657
37.2488640 -0.256338
21.6917530 0.728259
S 1 1.00
10.5354930 1.0
S 1 1.00
2.9743190 1.0
S 1 1.00
1.5975970 1.0
S 1 1.00
0.6358520 1.0
S 1 1.00
0.2881220 1.0
S 1 1.00
0.0590980 1.0
S 1 1.00
0.0240410 1.0
P 5 1.00
2910.4057000 0.000074
702.6976100 0.000571
225.0786100 0.002833
81.0763820 0.007889
25.4817050 0.016924
P 1 1.00
14.9892380 1.0
P 1 1.00
8.7634560 1.0
P 1 1.00
3.6275340 1.0
P 1 1.00
1.8062750 1.0
P 1 1.00
0.6853270 1.0
P 1 1.00
0.2939420 1.0
P 1 1.00
0.1030860 1.0
P 1 1.00
0.0308800 1.0
D 6 1.00
466.3282000 0.000053
160.0231800 0.000378
60.9150000 0.001967
18.4003070 0.026101
10.8237100 -0.088883
3.7149000 0.450510
D 1 1.00
1.8343810 1.0
D 1 1.00
0.8178830 1.0
D 1 1.00
0.2716130 1.0
D 1 1.00
0.0835950 1.0
F 5 1.00
110.5329600 0.000259
36.9281390 0.002616
15.1558070 0.011226
4.9877490 0.135563
2.4414710 0.343223
F 1 1.00
1.1048580 1.0
F 1 1.00
0.4554700 1.0
F 1 1.00
0.1617190 1.0
G 4 1.00
110.5329600 0.000164
36.9281390 0.002792
15.1558070 0.027455
4.9877490 0.145211
G 1 1.00
2.4414710 1.0
G 1 1.00
1.1048500 1.0
****
S  0
aug-cc-pVTZ
****
O  0
aug-cc-pVTZ
****
C  0
aug-cc-pVTZ
****
H  0
aug-cc-pVTZ
****

Np 0
MWB60

NpO2_CH3SO2_SO2-m1-doublet.QTAIM.wfx
