11
Energy = -231.3577415319
C     1.2196159   -0.0000000   -0.9268852 
C     1.2067832    0.0000000    0.4683333 
C     0.0000000    0.0000000    1.1553211 
C    -1.2067832    0.0000000    0.4683333 
C    -1.2196159   -0.0000000   -0.9268852 
C    -0.0000000   -0.0000001   -1.5474343 
H     2.1521362    0.0000000   -1.4781619 
H     2.1437595    0.0000000    1.0135964 
H    -0.0000000   -0.0000000    2.2383478 
H    -2.1437594    0.0000000    1.0135964 
H    -2.1521362    0.0000000   -1.4781619 
