12
Energy = -1442.999238475
C    -1.6367221    1.1146180    1.2889513 
S    -1.0985147   -0.6216304    1.2752710 
O    -1.2866594   -0.9882868   -0.1996895 
Pu    1.1283929   -0.6995760   -0.9011582 
O     3.1594528   -0.4625232   -2.0724937 
O     0.4067576   -0.4737585    1.5153081 
O     1.4434770   -2.4103884   -0.6785695 
O     0.8184390    1.0187118   -1.1248908 
H    -1.4671832    1.5173364    2.2881960 
H    -1.0312623    1.6321998    0.5438171 
H    -2.6963435    1.1487810    1.0333509 
O     2.2601659   -0.7754837   -2.9680926 
