31
Energy = -2187.297120589
C     4.2055759    0.3884097   -0.0068060 
S     2.7546882    1.4793842   -0.0041887 
O     1.9704628    0.9931313   -1.2270504 
U     0.0000919    0.0004380   -0.0052316 
O    -1.9722842   -0.9932232    1.2135847 
S    -2.7542601   -1.4789605   -0.0108720 
C    -4.2053302   -0.3882193   -0.0105603 
O     1.9719735    0.9890143    1.2180221 
O    -1.9694889   -0.9877749   -1.2314838 
O    -0.8146432    1.6051626   -0.0024842 
O     0.8147946   -1.6042989   -0.0072200 
C    -5.4585970   -0.9758103   -0.0131944 
C    -6.5953797   -0.1756998   -0.0134882 
C    -6.4625517    1.2041410   -0.0111031 
C    -5.1975746    1.7846192   -0.0083776 
C    -4.0600083    0.9938344   -0.0080841 
H    -5.5422977   -2.0580352   -0.0150747 
H    -7.5802105   -0.6292700   -0.0155886 
H    -7.3461486    1.8327258   -0.0113741 
H    -5.0987228    2.8643362   -0.0065120 
H    -3.0644274    1.4283611   -0.0060836 
C     5.4589043    0.9758889   -0.0091427 
C     6.5956125    0.1756771   -0.0113353 
C     6.4626567   -1.2041553   -0.0111035 
C     5.1976260   -1.7845152   -0.0086945 
C     4.0601324   -0.9936278   -0.0065205 
H     5.5427139    2.0581065   -0.0092463 
H     7.5804820    0.6291648   -0.0132009 
H     7.3461950   -1.8328199   -0.0128242 
H     5.0986799   -2.8642252   -0.0085519 
H     3.0645092   -1.4280620   -0.0047730 
