   31
scf done: -2224.763405
 C     0.389032     4.204264    -0.001026
 S     1.474658     2.747553    -0.011834
 O     0.993695     1.966899     1.213692
Np    -0.002593    -0.001233    -0.001941
 O    -0.999080    -1.969843    -1.216707
 S    -1.479626    -2.750333     0.009080
 C    -0.393571    -4.206717    -0.001336
 O     0.972781     1.969289    -1.230472
 O    -0.977656    -1.971647     1.227422
 O     1.581134    -0.794177    -0.015931
 O    -1.586310     0.791698     0.011908
 C    -0.983078    -5.458928     0.003729
 C    -0.185108    -6.597337    -0.003638
 C     1.194936    -6.467584    -0.015922
 C     1.777913    -5.203690    -0.020917
 C     0.988643    -4.065272    -0.013713
 H    -2.065452    -5.540480     0.013454
 H    -0.640498    -7.581374     0.000227
 H     1.821658    -7.352462    -0.021659
 H     2.857816    -5.107028    -0.030524
 H     1.424162    -3.070838    -0.017576
 C     0.979151     5.456197    -0.005070
 C     0.181786     6.595022     0.002956
 C    -1.198324     6.465974     0.014875
 C    -1.781927     5.202370     0.018770
 C    -0.993259     4.063528     0.010896
 H     2.061569     5.537193    -0.014506
 H     0.637700     7.578819    -0.000139
 H    -1.824603     7.351161     0.021195
 H    -2.861881     5.106251     0.028121
 H    -1.429536     3.069425     0.013898
