   19
scf done: -1520.668512
 C     0.923377     3.968060     0.776401
 C     0.282747     2.796347     0.412132
 C    -0.980365     2.822864    -0.166754
 C    -1.595445     4.046404    -0.377626
 C    -0.959304     5.229963    -0.014355
 C     0.300516     5.192602     0.563017
 S     1.139021     1.218892     0.716019
 O     1.172944     0.593861    -0.683342
Np    -0.407448    -1.312392    -0.390805
 O    -1.831203    -0.314221    -0.821925
 O     0.114600     0.429938     1.520102
 O    -0.758150    -2.622954    -2.132536
 H    -0.109101    -3.320250    -2.232658
 O     0.902157    -2.398062     0.164312
 H    -1.461337     1.889472    -0.444489
 H    -2.580175     4.079776    -0.830625
 H    -1.449520     6.182379    -0.183768
 H     0.798142     6.113575     0.846473
 H     1.910103     3.919103     1.226571
