14
Energy = -779.8093458132
C     0.1037929    0.7882109    0.0000000 
C     0.0773822    0.1208547   -1.2152787 
C    -0.0035923   -1.2624936   -1.2056659 
C    -0.0420753   -1.9502733    0.0000000 
C    -0.0035923   -1.2624936    1.2056659 
C     0.0773822    0.1208547    1.2152787 
H     0.0987845    0.6810447   -2.1407796 
H    -0.0401349   -1.8039306   -2.1425788 
H    -0.1042776   -3.0315054    0.0000000 
H    -0.0401349   -1.8039306    2.1425788 
H     0.0987845    0.6810447    2.1407796 
S     0.2611487    2.5698345    0.0000000 
O    -0.2417338    3.0763914   -1.2785604 
O    -0.2417338    3.0763914    1.2785604 
