20
Energy = -1955.848169191
C     0.1716545    3.3787913   -0.0831326 
S     1.3765884    2.0201579   -0.1182480 
O     1.0202825    1.2279076    1.1420070 
U     0.1400194   -0.8613727    0.0160801 
O    -0.7692581   -2.9553405   -1.1263798 
S    -1.0441781   -3.7628781    0.1437508 
O    -0.6387001   -2.9008661    1.3409294 
O     0.8878844    1.1708564   -1.2942342 
O     1.8039701   -1.5459356   -0.0545371 
O    -1.5378427   -0.1856641    0.0900681 
C     0.6508887    4.6753251   -0.1548052 
C    -0.2393974    5.7426617   -0.1285761 
C    -1.6003376    5.4982676   -0.0302947 
C    -2.0720573    4.1907815    0.0408641 
C    -1.1905520    3.1223642    0.0148571 
H     1.7200267    4.8468007   -0.2306451 
H     0.1295018    6.7607316   -0.1842484 
H    -2.2989098    6.3273374   -0.0086531 
H    -3.1373832    4.0042653    0.1175092 
H    -1.5409054    2.0959400    0.0686133 
