7
Energy = -588.2388577192
C    -0.7787972   -0.0037135    0.0000000 
S     0.9865369    0.3897771    0.0000000 
O     1.5341622   -0.0789593   -1.2746795 
O     1.5341622   -0.0789593    1.2746795 
H    -1.2115483    0.4197440    0.9025796 
H    -0.8465243   -1.0913355    0.0000000 
H    -1.2115483    0.4197440   -0.9025796 
