7
Energy = -588.2488092541
C    -0.0981659    0.7878729    0.0779622
H    -0.0067018    0.4413852    1.1069183
H     0.8787070    1.1026336   -0.2964605
H    -0.8006981    1.6163404    0.0248367
O    -0.6429608   -0.2378468   -0.7560252
S     0.1192308   -1.6799798   -0.7634786
O     0.5505887   -2.0304055    0.6062472
