12
Energy = -1403.570757302
C    -1.6061910    1.1027067    1.2642388 
S    -1.0484119   -0.6234824    1.2381747 
O    -1.2453292   -0.9875883   -0.2399630 
Np    1.1587507   -0.6918502   -0.9520193 
O     3.0668460   -0.4559119   -1.8913619 
O     0.4623925   -0.4612059    1.4586312 
O     1.4235414   -2.4062215   -0.6862310 
O     0.7945063    1.0228812   -1.1239468 
H    -1.4229702    1.5051890    2.2609640 
H    -1.0240754    1.6308842    0.5084053 
H    -2.6712065    1.1200341    1.0307317 
O     2.1121473   -0.7554351   -2.8676237 
