12
Energy = -1443.025533089
C    -1.6400122    1.1161128    1.2913688 
S    -1.1010436   -0.6194962    1.2842995 
O    -1.2942690   -0.9927533   -0.1888006 
Pu    1.1144252   -0.7032127   -0.8948807 
O     3.1872165   -0.4771496   -2.0831992 
O     0.4056008   -0.4705327    1.5182891 
O     1.4344258   -2.4203625   -0.6818921 
O     0.8107758    1.0212783   -1.1265341 
H    -1.4643047    1.5253936    2.2868321 
H    -1.0401912    1.6295589    0.5387763 
H    -2.7013858    1.1471354    1.0427458 
O     2.2887623   -0.7559720   -2.9870049 
