7
Energy = -588.3236368448
C    -0.7629596    0.0204199    0.0000000 
S     1.0164241    0.5253466    0.0000000 
O     1.5021031   -0.1557369   -1.2578859 
O     1.5021031   -0.1557369    1.2578859 
H    -1.2450599    0.4070891    0.9001801 
H    -0.7611077   -1.0721733    0.0000000 
H    -1.2450599    0.4070891   -0.9001801 
