13
Energy = -1764.279482786
C    -1.4786369   -3.4860336    0.0000000 
S     0.2599832   -2.9698334    0.0000000 
O     0.3082910   -2.0527021   -1.2305092 
U     0.0856608    0.1308115    0.0000000 
O    -0.2183071    2.3404068    1.2376689 
S    -0.3468817    3.2314359    0.0000000 
O    -0.2183071    2.3404068   -1.2376689 
O     0.3082910   -2.0527021    1.2305092 
O     1.8593399    0.3726858    0.0000000 
O    -1.6972052   -0.1042425    0.0000000 
H    -1.6571668   -4.0796265    0.8971592 
H    -2.0739539   -2.5717227    0.0000000 
H    -1.6571668   -4.0796265   -0.8971592 
