12
 Energy =   -1366.1234629470
 C   -2.1875677    0.7993527    0.0000000  0.00    0.0043345    0.0026568   -0.0000000
 S   -1.4950287   -0.8769920    0.0000000  0.00    0.0021268    0.0020958   -0.0000000
 O   -0.5800199   -0.8304463   -1.2319725  0.00    0.0005853   -0.0008274    0.0000002
 U    1.6103454   -0.4620861    0.0000000  0.00    0.0036304    0.0040410   -0.0000000
 O    3.5908431   -0.0769692    0.7055461  0.00   -0.0020648   -0.0014877    0.0797560
 O   -0.5800199   -0.8304463    1.2319725  0.00    0.0005853   -0.0008274   -0.0000002
 O    1.8291785   -2.2265503    0.0000000  0.00    0.0014283   -0.0054535   -0.0000000
 O    1.1566738    1.2644217    0.0000000  0.00    0.0025750    0.0011811   -0.0000000
 H   -2.7941270    0.9167332    0.8988099  0.00   -0.0043433   -0.0004670   -0.0089213
 H   -1.3406735    1.4863580    0.0000000  0.00    0.0025830   -0.0013977   -0.0000000
 H   -2.7941270    0.9167332   -0.8988099  0.00   -0.0043433   -0.0004670    0.0089213
 O    3.5908431   -0.0769692   -0.7055461  0.00   -0.0020648   -0.0014877   -0.0797560
12
 Energy =   -1366.1234790860
 C   -2.1895344    0.7993746    0.0000000  0.00    0.0095898    0.0023461   -0.0000000
 S   -1.4938476   -0.8757480    0.0000000  0.00   -0.0006416   -0.0054144   -0.0000000
 O   -0.5788359   -0.8289920   -1.2319724  0.00   -0.0002816    0.0025750    0.0013461
 U    1.6117994   -0.4619821    0.0000000  0.00    0.0039810    0.0008704   -0.0000000
 O    3.5919084   -0.0788835    0.7073861  0.00   -0.0008621   -0.0011091    0.0307894
 O   -0.5788359   -0.8289920    1.2319724  0.00   -0.0002816    0.0025750   -0.0013461
 O    1.8295024   -2.2268031    0.0000000  0.00   -0.0001208   -0.0001383   -0.0000000
 O    1.1602763    1.2651335    0.0000000  0.00    0.0001887   -0.0020474   -0.0000000
 H   -2.7970243    0.9154246    0.8980744  0.00   -0.0034815   -0.0003765   -0.0036665
 H   -1.3439724    1.4880661    0.0000000  0.00    0.0012264   -0.0004239   -0.0000000
 H   -2.7970243    0.9154246   -0.8980744  0.00   -0.0034815   -0.0003765    0.0036665
 O    3.5919084   -0.0788835   -0.7073861  0.00   -0.0008621   -0.0011091   -0.0307894
12
 Energy =   -1366.1234822740
 C   -2.1889248    0.7993753    0.0000000  0.00    0.0039796    0.0002241   -0.0000000
 S   -1.4939626   -0.8760679    0.0000000  0.00    0.0025112    0.0008154   -0.0000000
 O   -0.5787965   -0.8288361   -1.2317994  0.00   -0.0002342    0.0001954   -0.0007311
 U    1.6119319   -0.4618197    0.0000000  0.00   -0.0011571   -0.0024589   -0.0000000
 O    3.5915237   -0.0789273    0.7086376  0.00    0.0008222   -0.0006816   -0.0072815
 O   -0.5787965   -0.8288361    1.2317994  0.00   -0.0002342    0.0001954    0.0007311
 O    1.8294745   -2.2266519    0.0000000  0.00   -0.0000557   -0.0005677   -0.0000000
 O    1.1600837    1.2651091    0.0000000  0.00    0.0014954    0.0008335   -0.0000000
 H   -2.7972151    0.9153457    0.8974447  0.00   -0.0017978    0.0002102   -0.0003457
 H   -1.3433066    1.4880297    0.0000000  0.00    0.0005894   -0.0008927   -0.0000000
 H   -2.7972151    0.9153457   -0.8974447  0.00   -0.0017978    0.0002102    0.0003457
 O    3.5915237   -0.0789273   -0.7086376  0.00    0.0008222   -0.0006816    0.0072815
12
 Energy =   -1366.1234824230
 C   -2.1895081    0.7993336    0.0000000  0.00    0.0045546    0.0007618   -0.0000000
 S   -1.4935711   -0.8756898    0.0000000  0.00    0.0004488   -0.0022936   -0.0000000
 O   -0.5785123   -0.8283584   -1.2318723  0.00   -0.0001096    0.0013666    0.0000874
 U    1.6122623   -0.4618057    0.0000000  0.00    0.0016144   -0.0007964   -0.0000000
 O    3.5920240   -0.0794634    0.7085031  0.00    0.0001599   -0.0008315    0.0018096
 O   -0.5785123   -0.8283584    1.2318723  0.00   -0.0001096    0.0013666   -0.0000874
 O    1.8293410   -2.2266930    0.0000000  0.00   -0.0001079    0.0002517   -0.0000000
 O    1.1610889    1.2653268    0.0000000  0.00    0.0001640   -0.0012858   -0.0000000
 H   -2.7980012    0.9149173    0.8974001  0.00   -0.0011735    0.0001529   -0.0005706
 H   -1.3443138    1.4884762    0.0000000  0.00    0.0004934   -0.0006663   -0.0000000
 H   -2.7980012    0.9149173   -0.8974001  0.00   -0.0011735    0.0001529    0.0005706
 O    3.5920240   -0.0794634   -0.7085031  0.00    0.0001599   -0.0008315   -0.0018096
12
 Energy =   -1366.1234824460
 C   -2.1894678    0.7992804    0.0000000  0.00    0.0002223   -0.0001603   -0.0000000
 S   -1.4933570   -0.8756485    0.0000000  0.00    0.0006165   -0.0006600   -0.0000000
 O   -0.5783601   -0.8279300   -1.2318848  0.00    0.0001632    0.0005248   -0.0000199
 U    1.6124755   -0.4617494    0.0000000  0.00   -0.0002768   -0.0009535   -0.0000000
 O    3.5922035   -0.0797374    0.7086868  0.00    0.0004508   -0.0007448   -0.0023540
 O   -0.5783601   -0.8279300    1.2318848  0.00    0.0001632    0.0005248    0.0000199
 O    1.8291545   -2.2266249    0.0000000  0.00    0.0001355   -0.0009418   -0.0000000
 O    1.1612212    1.2652957    0.0000000  0.00    0.0012440    0.0001614   -0.0000000
 H   -2.7984691    0.9146808    0.8971394  0.00    0.0005262    0.0002184   -0.0000708
 H   -1.3444549    1.4885591    0.0000000  0.00    0.0006627   -0.0000852   -0.0000000
 H   -2.7984691    0.9146808   -0.8971394  0.00    0.0005262    0.0002184    0.0000708
 O    3.5922035   -0.0797374   -0.7086868  0.00    0.0004508   -0.0007448    0.0023540
