13
Energy = -1801.744052596
C     0.9472482    2.2661113    1.0882705 
S     1.7211231    0.6252893    1.0311488 
O     0.6313547   -0.2492483    1.6629275 
Np   -0.3396054   -1.1363188   -0.4776528 
O    -1.3712051   -1.9846987   -2.6474683 
S    -2.5622513   -2.7073818   -2.0169109 
O    -2.4482007   -2.5662217   -0.4985010 
O     1.7010355    0.3295843   -0.4734259 
O     0.6570958   -2.5980026   -0.3756953 
O    -1.3453679    0.3272273   -0.5833892 
H     1.6017610    2.9706897    0.5741622 
H    -0.0147088    2.1745194    0.5824909 
H     0.8217211    2.5484506    2.1340436 
